Version 4
SHEET 1 880 680
WIRE 192 112 176 112
WIRE 336 112 272 112
WIRE 288 160 288 48
WIRE 176 176 176 112
WIRE 256 176 176 176
WIRE 336 192 336 112
WIRE 336 192 320 192
WIRE 480 192 336 192
WIRE -352 208 -352 96
WIRE -208 208 -352 208
WIRE 0 208 -128 208
WIRE 256 208 0 208
WIRE 0 224 0 208
WIRE 176 224 176 176
WIRE -592 256 -592 224
WIRE -464 256 -464 224
WIRE -352 256 -352 208
WIRE 288 336 288 224
WIRE -96 352 -112 352
WIRE 0 352 0 304
WIRE 0 352 -16 352
WIRE 16 352 0 352
WIRE 112 352 96 352
WIRE -112 400 -112 352
WIRE 112 400 112 352
WIRE -592 432 -592 336
WIRE -464 432 -464 336
WIRE -352 432 -352 336
WIRE 176 432 176 304
FLAG -464 432 0
FLAG 176 432 0
FLAG -352 432 0
FLAG -352 96 triang
FLAG 480 192 out
FLAG -592 432 0
FLAG -592 224 -5V
FLAG -464 224 +5V
FLAG 288 48 +5V
FLAG 288 336 -5V
FLAG -112 400 -5V
FLAG 112 400 +5V
SYMBOL OpAmps\\OP07 288 128 R0
SYMATTR InstName U1
SYMBOL res -112 192 R90
WINDOW 0 0 56 VBottom 2
WINDOW 3 32 56 VTop 2
SYMATTR InstName R1
SYMATTR Value 10k
SYMBOL res 16 320 R180
WINDOW 0 36 76 Left 2
WINDOW 3 36 40 Left 2
SYMATTR InstName R2
SYMATTR Value 10k
SYMBOL res 192 320 R180
WINDOW 0 36 76 Left 2
WINDOW 3 36 40 Left 2
SYMATTR InstName R3
SYMATTR Value 10k
SYMBOL res 176 128 R270
WINDOW 0 32 56 VTop 2
WINDOW 3 0 56 VBottom 2
SYMATTR InstName R4
SYMATTR Value 4.5k
SYMBOL voltage -464 240 R0
WINDOW 0 32 56 VTop 2
WINDOW 3 -32 56 VBottom 2
WINDOW 123 0 0 Left 0
WINDOW 39 0 0 Left 0
SYMATTR InstName V1
SYMATTR Value 5
SYMBOL voltage -592 240 R0
WINDOW 0 32 56 VTop 2
WINDOW 3 -32 56 VBottom 2
WINDOW 123 0 0 Left 0
WINDOW 39 0 0 Left 0
SYMATTR InstName V2
SYMATTR Value -5
SYMBOL res 0 336 R90
WINDOW 0 0 56 VBottom 2
WINDOW 3 32 56 VTop 2
SYMATTR InstName R5
SYMATTR Value 25k
SYMBOL res 112 336 R90
WINDOW 0 0 56 VBottom 2
WINDOW 3 32 56 VTop 2
SYMATTR InstName R6
SYMATTR Value 25k
SYMBOL voltage -352 240 R0
WINDOW 3 24 96 Left 1
WINDOW 123 0 0 Left 0
WINDOW 39 0 0 Left 0
SYMATTR Value PULSE(2 3 0 1 1 0 2)
SYMATTR InstName Vtri
TEXT 416 432 Left 2 !.tran 4
